data_beta-cupc
_audit_creation_date              2018-03-13
_audit_creation_method            'Materials Studio'
_symmetry_space_group_name_H-M    'P21/C'
_symmetry_Int_Tables_number       14
_symmetry_cell_setting            monoclinic
loop_
_symmetry_equiv_pos_as_xyz
  x,y,z
  -x,y+1/2,-z+1/2
  -x,-y,-z
  x,-y+1/2,z+1/2
_cell_length_a                    14.6280
_cell_length_b                    4.7900
_cell_length_c                    19.4070
_cell_angle_alpha                 90.0000
_cell_angle_beta                  120.9300
_cell_angle_gamma                 90.0000
loop_
_atom_site_label
_atom_site_type_symbol
_atom_site_fract_x
_atom_site_fract_y
_atom_site_fract_z
_atom_site_U_iso_or_equiv
_atom_site_adp_type
_atom_site_occupancy
N2     N    -0.05640  -0.49388  -0.14016   0.00000  Uiso   1.00
N3     N    -0.11941  -0.24805  -0.06229   0.00000  Uiso   1.00
N4     N    -0.23911  -0.10758  -0.01644   0.00000  Uiso   1.00
N5     N    -0.07373   0.15227   0.05319   0.00000  Uiso   1.00
C6     C    -0.12638  -0.43832  -0.11774   0.00000  Uiso   1.00
C7     C    -0.22611  -0.58850  -0.15041   0.00000  Uiso   1.00
C8     C    -0.26770  -0.80713  -0.20526   0.00000  Uiso   1.00
C9     C    -0.36359  -0.92263  -0.22027   0.00000  Uiso   1.00
C10    C    -0.41632  -0.82066  -0.18179   0.00000  Uiso   1.00
C11    C    -0.37648  -0.59378  -0.12925   0.00000  Uiso   1.00
C12    C    -0.27952  -0.48114  -0.11320   0.00000  Uiso   1.00
C13    C    -0.21126  -0.26374  -0.05898   0.00000  Uiso   1.00
C14    C    -0.17587   0.08812   0.03369   0.00000  Uiso   1.00
C15    C    -0.20807   0.27425   0.07666   0.00000  Uiso   1.00
C16    C    -0.30593   0.31676   0.07130   0.00000  Uiso   1.00
C17    C    -0.31265   0.53586   0.11599   0.00000  Uiso   1.00
C18    C    -0.22317   0.70153   0.16663   0.00000  Uiso   1.00
C19    C    -0.12492   0.65663   0.17271   0.00000  Uiso   1.00
C20    C    -0.11926   0.44384   0.12578   0.00000  Uiso   1.00
C21    C    -0.03674   0.36445   0.10861   0.00000  Uiso   1.00
H22    H    -0.22423  -0.88906  -0.23248   0.00000  Uiso   1.00
H23    H    -0.39664  -1.10131  -0.26018   0.00000  Uiso   1.00
H24    H    -0.48862  -0.92650  -0.19282   0.00000  Uiso   1.00
H25    H    -0.41666  -0.51136  -0.09936   0.00000  Uiso   1.00
H26    H    -0.37417   0.18471   0.03277   0.00000  Uiso   1.00
H27    H    -0.38859   0.57945   0.11187   0.00000  Uiso   1.00
H28    H    -0.23099   0.87096   0.20071   0.00000  Uiso   1.00
H29    H    -0.05652   0.78931   0.21007   0.00000  Uiso   1.00
Cu1    Cu    0.00000   0.00000   0.00000   0.00000  Uiso   1.00
loop_
_geom_bond_atom_site_label_1
_geom_bond_atom_site_label_2
_geom_bond_distance
_geom_bond_site_symmetry_2
_ccdc_geom_bond_type
N2     C6      1.329   .     D
N2     C21     1.326   3     S
N3     C6      1.373   .     S
N3     C13     1.380   .     D
N3     Cu1     1.937   .     S
N4     C13     1.324   .     S
N4     C14     1.325   .     D
N5     C14     1.374   .     S
N5     C21     1.373   .     D
N5     Cu1     1.976   .     S
C6     C7      1.448   .     S
C7     C8      1.391   .     D
C7     C12     1.406   .     S
C8     C9      1.392   .     S
C8     H22     1.088   .     S
C9     C10     1.408   .     D
C9     H23     1.087   .     S
C10    C11     1.396   .     S
C10    H24     1.090   .     S
C11    C12     1.395   .     D
C11    H25     1.090   .     S
C12    C13     1.452   .     S
C14    C15     1.454   .     S
C15    C16     1.396   .     D
C15    C20     1.408   .     S
C16    C17     1.397   .     S
C16    H26     1.090   .     S
C17    C18     1.409   .     D
C17    H27     1.092   .     S
C18    C19     1.397   .     S
C18    H28     1.089   .     S
C19    C20     1.397   .     D
C19    H29     1.089   .     S
C20    C21     1.458   .     S
C21    N2      1.326   3     S
Cu1    N3      1.937   3     S
Cu1    N5      1.976   3     S
