data_gamma-cupc
_audit_creation_date              2018-03-13
_audit_creation_method            'Materials Studio'
_symmetry_space_group_name_H-M    'C2/C'
_symmetry_Int_Tables_number       15
_symmetry_cell_setting            monoclinic
loop_
_symmetry_equiv_pos_as_xyz
  x,y,z
  -x,y,-z+1/2
  -x,-y,-z
  x,-y,z+1/2
  x+1/2,y+1/2,z
  -x+1/2,y+1/2,-z+1/2
  -x+1/2,-y+1/2,-z
  x+1/2,-y+1/2,z+1/2
_cell_length_a                    26.3400
_cell_length_b                    3.8100
_cell_length_c                    23.7000
_cell_angle_alpha                 90.0000
_cell_angle_beta                  94.1200
_cell_angle_gamma                 90.0000
loop_
_atom_site_label
_atom_site_type_symbol
_atom_site_fract_x
_atom_site_fract_y
_atom_site_fract_z
_atom_site_U_iso_or_equiv
_atom_site_adp_type
_atom_site_occupancy
N1     N    -0.31683   0.12105  -0.03664   0.00000  Uiso   1.00
C2     C    -0.37962  -0.08780  -0.10112   0.00000  Uiso   1.00
N3     N    -0.37204   0.32736   0.03421   0.00000  Uiso   1.00
C4     C    -0.38432   0.80276   0.20639   0.00000  Uiso   1.00
C5     C    -0.29673   0.69417   0.15062   0.00000  Uiso   1.00
N6     N    -0.29056  -0.14037  -0.12328   0.00000  Uiso   1.00
C7     C    -0.32513  -0.04046  -0.08846   0.00000  Uiso   1.00
H8     H    -0.41834   0.84783   0.22918   0.00000  Uiso   1.00
C9     C    -0.25908   0.59309   0.11180   0.00000  Uiso   1.00
C10    C    -0.38903   0.65281   0.15243   0.00000  Uiso   1.00
N11    N    -0.28344   0.44458   0.06424   0.00000  Uiso   1.00
H12    H    -0.48447  -0.34855  -0.18128   0.00000  Uiso   1.00
H13    H    -0.42596   0.57865   0.13231   0.00000  Uiso   1.00
C14    C    -0.40355   0.05508  -0.05504   0.00000  Uiso   1.00
C15    C    -0.29215   0.85055   0.20393   0.00000  Uiso   1.00
C16    C    -0.34459   0.59811   0.12491   0.00000  Uiso   1.00
C17    C    -0.40809  -0.23519  -0.14726   0.00000  Uiso   1.00
C18    C    -0.46111  -0.23023  -0.14638   0.00000  Uiso   1.00
C19    C    -0.33642   0.89990   0.23201   0.00000  Uiso   1.00
C20    C    -0.36316   0.18177  -0.01500   0.00000  Uiso   1.00
C21    C    -0.48498  -0.08355  -0.10057   0.00000  Uiso   1.00
C22    C    -0.45645   0.06198  -0.05440   0.00000  Uiso   1.00
C23    C    -0.33510   0.44445   0.07046   0.00000  Uiso   1.00
H24    H    -0.47449   0.18387  -0.01946   0.00000  Uiso   1.00
H25    H    -0.25507   0.93213   0.22268   0.00000  Uiso   1.00
H26    H    -0.38955  -0.35666  -0.18198   0.00000  Uiso   1.00
H27    H    -0.52645  -0.08564  -0.10073   0.00000  Uiso   1.00
H28    H    -0.33335   1.01604   0.27417   0.00000  Uiso   1.00
Cu29   Cu   -0.25000   0.25000  -0.00000   0.00000  Uiso   1.00
loop_
_geom_bond_atom_site_label_1
_geom_bond_atom_site_label_2
_geom_bond_distance
_geom_bond_site_symmetry_2
_ccdc_geom_bond_type
N1     Cu29    1.968   .     S
N1     C7      1.377   .     D
N1     C20     1.377   .     S
C2     C14     1.409   .     D
C2     C7      1.456   .     S
C2     C17     1.398   .     S
N3     C20     1.327   .     D
N3     C23     1.328   .     S
C4     C10     1.398   .     D
C4     C19     1.410   .     S
C4     H8      1.092   .     S
C5     C9      1.452   .     S
C5     C16     1.409   .     D
C5     C15     1.394   .     S
N6     C7      1.328   .     S
N6     C9      1.329   7_455 D
C9     N11     1.378   .     S
C9     N6      1.329   7_455 D
C10    C16     1.396   .     S
C10    H13     1.089   .     S
N11    Cu29    1.959   .     S
N11    C23     1.379   .     D
H12    C18     1.092   .     S
C14    C22     1.395   .     S
C14    C20     1.456   .     S
C15    C19     1.396   .     D
C15    H25     1.089   .     S
C16    C23     1.455   .     S
C17    C18     1.398   .     D
C17    H26     1.090   .     S
C18    C21     1.409   .     S
C19    H28     1.091   .     S
C21    C22     1.397   .     D
C21    H27     1.092   .     S
C22    H24     1.088   .     S
Cu29   N1      1.968   7_455 S
Cu29   N11     1.959   7_455 S
