data_oa1058_structure_1_of_1-pb31
_audit_creation_date              2022-08-29
_audit_creation_method            'Materials Studio'
_symmetry_space_group_name_H-M    'P21/C'
_symmetry_Int_Tables_number       14
_symmetry_cell_setting            monoclinic
loop_
_symmetry_equiv_pos_as_xyz
  x,y,z
  -x,y+1/2,-z+1/2
  -x,-y,-z
  x,-y+1/2,z+1/2
_cell_length_a                    4.7370
_cell_length_b                    32.4500
_cell_length_c                    9.5070
_cell_angle_alpha                 90.0000
_cell_angle_beta                  100.2700
_cell_angle_gamma                 90.0000
loop_
_atom_site_label
_atom_site_type_symbol
_atom_site_fract_x
_atom_site_fract_y
_atom_site_fract_z
_atom_site_U_iso_or_equiv
_atom_site_adp_type
_atom_site_occupancy
O1     O    -0.56938   0.55831  -0.41674   0.00000  Uiso   1.00
O2     O    -0.23482   0.65708  -0.08377   0.00000  Uiso   1.00
N1     N    -0.41267   0.60662  -0.24343   0.00000  Uiso   1.00
C1     C     0.28756   0.48637  -0.11972   0.00000  Uiso   1.00
C2     C     0.27144   0.52675  -0.06122   0.00000  Uiso   1.00
C3     C     0.48033   0.54112   0.05605   0.00000  Uiso   1.00
C4     C     0.45672   0.58147   0.10534   0.00000  Uiso   1.00
C5     C     0.23177   0.60742   0.04524   0.00000  Uiso   1.00
C6     C     0.02374   0.59373  -0.06714   0.00000  Uiso   1.00
C7     C     0.04320   0.55360  -0.12309   0.00000  Uiso   1.00
C8     C    -0.16204   0.54039  -0.24167   0.00000  Uiso   1.00
C9     C    -0.14097   0.50118  -0.29797   0.00000  Uiso   1.00
C10    C     0.08092   0.47472  -0.23758   0.00000  Uiso   1.00
C11    C    -0.39530   0.56796  -0.30859   0.00000  Uiso   1.00
C12    C    -0.21140   0.62166  -0.12875   0.00000  Uiso   1.00
C13    C    -0.64061   0.63506  -0.30922   0.00000  Uiso   1.00
C14    C    -0.53364   0.66525  -0.41345   0.00000  Uiso   1.00
C15    C    -0.78269   0.68443  -0.51223   0.00000  Uiso   1.00
C16    C    -0.89882   0.66433  -0.64012   0.00000  Uiso   1.00
C17    C    -1.13032   0.68115  -0.73466   0.00000  Uiso   1.00
C18    C    -1.25050   0.71847  -0.70084   0.00000  Uiso   1.00
C19    C    -1.13941   0.73855  -0.57289   0.00000  Uiso   1.00
C20    C    -0.90678   0.72154  -0.47915   0.00000  Uiso   1.00
H(4)   H     0.61695   0.59386   0.19140   0.00000  Uiso   1.00
H(5)   H     0.21871   0.63880   0.08471   0.00000  Uiso   1.00
H(9)   H    -0.29740   0.49124  -0.39018   0.00000  Uiso   1.00
H(10)  H     0.08988   0.44456  -0.28666   0.00000  Uiso   1.00
H(13a) H    -0.81575   0.61596  -0.36605   0.00000  Uiso   1.00
H(13b) H    -0.71411   0.65204  -0.22274   0.00000  Uiso   1.00
H(14a) H    -0.39871   0.68895  -0.35187   0.00000  Uiso   1.00
H(14b) H    -0.39852   0.64842  -0.47728   0.00000  Uiso   1.00
H(16)  H    -0.80143   0.63537  -0.66592   0.00000  Uiso   1.00
H(17)  H    -1.21271   0.66579  -0.83582   0.00000  Uiso   1.00
H(18)  H    -1.42992   0.73177  -0.77476   0.00000  Uiso   1.00
H(19)  H    -1.23141   0.76774  -0.54643   0.00000  Uiso   1.00
H(20)  H    -0.82310   0.73738  -0.37894   0.00000  Uiso   1.00
loop_
_geom_bond_atom_site_label_1
_geom_bond_atom_site_label_2
_geom_bond_distance
_geom_bond_site_symmetry_2
_ccdc_geom_bond_type
O1     C11     1.238   .     D
O2     C12     1.238   .     D
N1     C11     1.408   .     S
N1     C12     1.402   .     S
N1     C13     1.472   .     S
C1     C2      1.431   .     S
C1     C10     1.402   .     D
C1     C3      1.461   3_665 S
C2     C3      1.430   .     S
C2     C7      1.431   .     D
C3     C4      1.402   .     D
C3     C1      1.461   3_665 S
C4     C5      1.398   .     S
C4     H(4)    1.089   .     S
C5     C6      1.391   .     D
C5     H(5)    1.091   .     S
C6     C7      1.416   .     S
C6     C12     1.474   .     S
C7     C8      1.417   .     S
C8     C9      1.391   .     D
C8     C11     1.475   .     S
C9     C10     1.399   .     S
C9     H(9)    1.091   .     S
C10    H(10)   1.088   .     S
C13    C14     1.542   .     S
C13    H(13a)  1.098   .     S
C13    H(13b)  1.097   .     S
C14    C15     1.505   .     S
C14    H(14a)  1.100   .     S
C14    H(14b)  1.102   .     S
C15    C16     1.403   .     D
C15    C20     1.400   .     S
C16    C17     1.399   .     S
C16    H(16)   1.094   .     S
C17    C18     1.400   .     D
C17    H(17)   1.092   .     S
C18    C19     1.398   .     S
C18    H(18)   1.091   .     S
C19    C20     1.401   .     D
C19    H(19)   1.091   .     S
C20    H(20)   1.093   .     S
