data_oa1058_structure_1_of_1-pb31
_audit_creation_date              2022-08-28
_audit_creation_method            'Materials Studio'
_symmetry_space_group_name_H-M    'P21/C'
_symmetry_Int_Tables_number       14
_symmetry_cell_setting            monoclinic
loop_
_symmetry_equiv_pos_as_xyz
  x,y,z
  -x,y+1/2,-z+1/2
  -x,-y,-z
  x,-y+1/2,z+1/2
_cell_length_a                    4.7370
_cell_length_b                    32.4500
_cell_length_c                    9.5070
_cell_angle_alpha                 90.0000
_cell_angle_beta                  100.2700
_cell_angle_gamma                 90.0000
loop_
_atom_site_label
_atom_site_type_symbol
_atom_site_fract_x
_atom_site_fract_y
_atom_site_fract_z
_atom_site_U_iso_or_equiv
_atom_site_adp_type
_atom_site_occupancy
O1     O    -0.51590   0.55823  -0.44520   0.00000  Uiso   1.00
O2     O    -0.25620   0.65365  -0.09880   0.00000  Uiso   1.00
N1     N    -0.39630   0.60500  -0.26800   0.00000  Uiso   1.00
C1     C     0.31100   0.48703  -0.12900   0.00000  Uiso   1.00
C2     C     0.27630   0.52641  -0.06790   0.00000  Uiso   1.00
C3     C     0.46060   0.54016   0.05900   0.00000  Uiso   1.00
C4     C     0.41810   0.57969   0.10960   0.00000  Uiso   1.00
C5     C     0.20180   0.60511   0.04200   0.00000  Uiso   1.00
C6     C     0.01610   0.59223  -0.07740   0.00000  Uiso   1.00
C7     C     0.05280   0.55289  -0.13580   0.00000  Uiso   1.00
C8     C    -0.12970   0.54001  -0.26200   0.00000  Uiso   1.00
C9     C    -0.09050   0.50210  -0.31980   0.00000  Uiso   1.00
C10    C     0.12750   0.47616  -0.25470   0.00000  Uiso   1.00
C11    C    -0.36100   0.56730  -0.33370   0.00000  Uiso   1.00
C12    C    -0.21750   0.61991  -0.14520   0.00000  Uiso   1.00
C13    C    -0.62750   0.63250  -0.33970   0.00000  Uiso   1.00
C14    C    -0.52430   0.65950  -0.44840   0.00000  Uiso   1.00
C15    C    -0.76960   0.68330  -0.53560   0.00000  Uiso   1.00
C16    C    -0.93570   0.66610  -0.65310   0.00000  Uiso   1.00
C17    C    -1.14500   0.68790  -0.73390   0.00000  Uiso   1.00
C18    C    -1.20500   0.72730  -0.69680   0.00000  Uiso   1.00
C19    C    -1.05100   0.74440  -0.57840   0.00000  Uiso   1.00
C20    C    -0.83700   0.72250  -0.49720   0.00000  Uiso   1.00
H(4)   H     0.54150   0.58930   0.19280   0.00000  Uiso   1.00
H(5)   H     0.18100   0.63190   0.07890   0.00000  Uiso   1.00
H(9)   H    -0.21320   0.49350  -0.40490   0.00000  Uiso   1.00
H(10)  H     0.15220   0.45020  -0.29710   0.00000  Uiso   1.00
H(13a) H    -0.78250   0.61610  -0.38630   0.00000  Uiso   1.00
H(13b) H    -0.69110   0.64940  -0.27000   0.00000  Uiso   1.00
H(14a) H    -0.38730   0.67840  -0.40050   0.00000  Uiso   1.00
H(14b) H    -0.43750   0.64270  -0.51080   0.00000  Uiso   1.00
H(16)  H    -0.90250   0.63830  -0.67780   0.00000  Uiso   1.00
H(17)  H    -1.25330   0.67590  -0.81770   0.00000  Uiso   1.00
H(18)  H    -1.35340   0.74260  -0.75400   0.00000  Uiso   1.00
H(19)  H    -1.09160   0.77170  -0.55140   0.00000  Uiso   1.00
H(20)  H    -0.73060   0.73450  -0.41290   0.00000  Uiso   1.00
loop_
_geom_bond_atom_site_label_1
_geom_bond_atom_site_label_2
_geom_bond_distance
_geom_bond_site_symmetry_2
_ccdc_geom_bond_type
O1     C11     1.213   .     D
O2     C12     1.207   .     D
N1     C11     1.397   .     S
N1     C12     1.401   .     S
N1     C13     1.481   .     S
C1     C2      1.425   .     S
C1     C10     1.392   .     D
C1     C3      1.461   3_665 S
C2     C3      1.429   .     S
C2     C7      1.426   .     D
C3     C4      1.397   .     D
C3     C1      1.461   3_665 S
C4     C5      1.381   .     S
C4     H(4)    0.949   .     S
C5     C6      1.371   .     D
C5     H(5)    0.949   .     S
C6     C7      1.415   .     S
C6     C12     1.481   .     S
C7     C8      1.411   .     S
C8     C9      1.373   .     D
C8     C11     1.478   .     S
C9     C10     1.389   .     S
C9     H(9)    0.950   .     S
C10    H(10)   0.950   .     S
C13    C14     1.502   .     S
C13    H(13a)  0.950   .     S
C13    H(13b)  0.950   .     S
C14    C15     1.513   .     S
C14    H(14a)  0.948   .     S
C14    H(14b)  0.951   .     S
C15    C16     1.366   .     D
C15    C20     1.377   .     S
C16    C17     1.342   .     S
C16    H(16)   0.952   .     S
C17    C18     1.370   .     D
C17    H(17)   0.951   .     S
C18    C19     1.347   .     S
C18    H(18)   0.949   .     S
C19    C20     1.360   .     D
C19    H(19)   0.951   .     S
C20    H(20)   0.951   .     S
