data_pr149
_audit_creation_date              2022-08-28
_audit_creation_method            'Materials Studio'
_symmetry_space_group_name_H-M    'P21/C'
_symmetry_Int_Tables_number       14
_symmetry_cell_setting            monoclinic
loop_
_symmetry_equiv_pos_as_xyz
  x,y,z
  -x,y+1/2,-z+1/2
  -x,-y,-z
  x,-y+1/2,z+1/2
_cell_length_a                    17.0133
_cell_length_b                    4.8690
_cell_length_c                    17.0960
_cell_angle_alpha                 90.0000
_cell_angle_beta                  93.4000
_cell_angle_gamma                 90.0000
loop_
_atom_site_label
_atom_site_type_symbol
_atom_site_fract_x
_atom_site_fract_y
_atom_site_fract_z
_atom_site_U_iso_or_equiv
_atom_site_adp_type
_atom_site_occupancy
O(1)   O     0.67232  -0.17566   0.32183   0.00000  Uiso   1.00
O(2)   O     0.79263   0.48308   0.17796   0.00000  Uiso   1.00
N(1)   N     0.73717   0.13418   0.24721   0.00000  Uiso   1.00
C(1)   C     0.49993  -0.32344   0.13915   0.00000  Uiso   1.00
C(2)   C     0.55731  -0.28381   0.20005   0.00000  Uiso   1.00
C(3)   C     0.61607  -0.08720   0.19371   0.00000  Uiso   1.00
C(4)   C     0.61792   0.07274   0.12469   0.00000  Uiso   1.00
C(5)   C     0.67848   0.26950   0.11786   0.00000  Uiso   1.00
C(6)   C     0.68070   0.42483   0.04975   0.00000  Uiso   1.00
C(7)   C     0.62330   0.39095  -0.01151   0.00000  Uiso   1.00
C(8)   C     0.56175   0.20144  -0.00676   0.00000  Uiso   1.00
C(9)   C     0.55870   0.03699   0.06244   0.00000  Uiso   1.00
C(10)  C     0.49864  -0.16500   0.07040   0.00000  Uiso   1.00
C(11)  C     0.67589  -0.05087   0.25890   0.00000  Uiso   1.00
C(12)  C     0.74044   0.30836   0.18127   0.00000  Uiso   1.00
C(13)  C     0.80085   0.15470   0.30761   0.00000  Uiso   1.00
C(14)  C     0.86858  -0.00151   0.29949   0.00000  Uiso   1.00
C(15)  C     0.93194   0.02294   0.35554   0.00000  Uiso   1.00
C(16)  C     0.92447   0.20381   0.41862   0.00000  Uiso   1.00
C(17)  C     0.85597   0.35832   0.42745   0.00000  Uiso   1.00
C(18)  C     0.79339   0.33176   0.37068   0.00000  Uiso   1.00
C(19)  C     1.00570  -0.14335   0.34778   0.00000  Uiso   1.00
C(20)  C     0.84931   0.55209   0.49547   0.00000  Uiso   1.00
H(1a)  H     0.45572  -0.48182   0.14633   0.00000  Uiso   1.00
H(2a)  H     0.55695  -0.40782   0.25320   0.00000  Uiso   1.00
H(6a)  H     0.72834   0.57225   0.04466   0.00000  Uiso   1.00
H(7a)  H     0.62913   0.51378  -0.06402   0.00000  Uiso   1.00
H(14a) H     0.87133  -0.14282   0.25022   0.00000  Uiso   1.00
H(16a) H     0.97354   0.22357   0.46260   0.00000  Uiso   1.00
H(18a) H     0.74002   0.45332   0.37455   0.00000  Uiso   1.00
H(19a) H     0.99208  -0.36478   0.34897   0.00000  Uiso   1.00
H(19b) H     1.03273  -0.10214   0.29198   0.00000  Uiso   1.00
H(19c) H     1.05002  -0.09824   0.39552   0.00000  Uiso   1.00
H(20a) H     0.90286   0.54861   0.53482   0.00000  Uiso   1.00
H(20b) H     0.83991   0.76413   0.47430   0.00000  Uiso   1.00
H(20c) H     0.79928   0.49598   0.53038   0.00000  Uiso   1.00
loop_
_geom_bond_atom_site_label_1
_geom_bond_atom_site_label_2
_geom_bond_distance
_geom_bond_site_symmetry_2
_ccdc_geom_bond_type
O(1)   C(11)   1.240   .     D
O(2)   C(12)   1.233   .     D
N(1)   C(11)   1.401   .     S
N(1)   C(12)   1.414   .     S
N(1)   C(13)   1.455   .     S
C(1)   C(2)    1.398   .     S
C(1)   C(10)   1.405   .     D
C(1)   H(1a)   1.089   .     S
C(2)   C(3)    1.393   .     D
C(2)   H(2a)   1.091   .     S
C(3)   C(4)    1.416   .     S
C(3)   C(11)   1.475   .     S
C(4)   C(5)    1.417   .     D
C(4)   C(9)    1.432   .     S
C(5)   C(6)    1.391   .     S
C(5)   C(12)   1.479   .     S
C(6)   C(7)    1.399   .     D
C(6)   H(6a)   1.090   .     S
C(7)   C(8)    1.402   .     S
C(7)   H(7a)   1.088   .     S
C(8)   C(9)    1.432   .     D
C(8)   C(10)   1.462   3_655 S
C(9)   C(10)   1.430   .     S
C(10)  C(8)    1.462   3_655 S
C(13)  C(14)   1.395   .     D
C(13)  C(18)   1.392   .     S
C(14)  C(15)   1.404   .     S
C(14)  H(14a)  1.091   .     S
C(15)  C(16)   1.404   .     D
C(15)  C(19)   1.506   .     S
C(16)  C(17)   1.403   .     S
C(16)  H(16a)  1.094   .     S
C(17)  C(18)   1.403   .     D
C(17)  C(20)   1.507   .     S
C(18)  H(18a)  1.089   .     S
C(19)  H(19a)  1.103   .     S
C(19)  H(19b)  1.102   .     S
C(19)  H(19c)  1.100   .     S
C(20)  H(20a)  1.100   .     S
C(20)  H(20b)  1.103   .     S
C(20)  H(20c)  1.102   .     S
