data_pr149
_audit_creation_date              2022-08-28
_audit_creation_method            'Materials Studio'
_symmetry_space_group_name_H-M    'P21/C'
_symmetry_Int_Tables_number       14
_symmetry_cell_setting            monoclinic
loop_
_symmetry_equiv_pos_as_xyz
  x,y,z
  -x,y+1/2,-z+1/2
  -x,-y,-z
  x,-y+1/2,z+1/2
_cell_length_a                    17.0133
_cell_length_b                    4.8690
_cell_length_c                    17.0960
_cell_angle_alpha                 90.0000
_cell_angle_beta                  93.4000
_cell_angle_gamma                 90.0000
loop_
_atom_site_label
_atom_site_type_symbol
_atom_site_fract_x
_atom_site_fract_y
_atom_site_fract_z
_atom_site_U_iso_or_equiv
_atom_site_adp_type
_atom_site_occupancy
O(1)   O     0.67340  -0.17770   0.31960   0.00000  Uiso   1.00
O(2)   O     0.79350   0.46750   0.17580   0.00000  Uiso   1.00
N(1)   N     0.73750   0.12900   0.24550   0.00000  Uiso   1.00
C(1)   C     0.49810  -0.31230   0.13990   0.00000  Uiso   1.00
C(2)   C     0.55620  -0.27610   0.20000   0.00000  Uiso   1.00
C(3)   C     0.61550  -0.08910   0.19280   0.00000  Uiso   1.00
C(4)   C     0.61800   0.06860   0.12360   0.00000  Uiso   1.00
C(5)   C     0.67950   0.26110   0.11570   0.00000  Uiso   1.00
C(6)   C     0.68250   0.41140   0.04810   0.00000  Uiso   1.00
C(7)   C     0.62510   0.37910  -0.01290   0.00000  Uiso   1.00
C(8)   C     0.56330   0.19510  -0.00760   0.00000  Uiso   1.00
C(9)   C     0.55910   0.03620   0.06220   0.00000  Uiso   1.00
C(10)  C     0.49790  -0.16080   0.07130   0.00000  Uiso   1.00
C(11)  C     0.67650  -0.05370   0.25750   0.00000  Uiso   1.00
C(12)  C     0.74150   0.29800   0.17930   0.00000  Uiso   1.00
C(13)  C     0.80080   0.15090   0.30670   0.00000  Uiso   1.00
C(14)  C     0.86890   0.00220   0.29790   0.00000  Uiso   1.00
C(15)  C     0.93160   0.03090   0.35380   0.00000  Uiso   1.00
C(16)  C     0.92210   0.20350   0.41660   0.00000  Uiso   1.00
C(17)  C     0.85350   0.35250   0.42550   0.00000  Uiso   1.00
C(18)  C     0.79190   0.32460   0.36890   0.00000  Uiso   1.00
C(19)  C     1.00690  -0.12700   0.34580   0.00000  Uiso   1.00
C(20)  C     0.84600   0.54290   0.49420   0.00000  Uiso   1.00
H(1a)  H     0.45770  -0.44420   0.14610   0.00000  Uiso   1.00
H(2a)  H     0.55460  -0.38230   0.24650   0.00000  Uiso   1.00
H(6a)  H     0.72770   0.56680   0.04340   0.00000  Uiso   1.00
H(7a)  H     0.63210   0.49000  -0.06500   0.00000  Uiso   1.00
H(14a) H     0.87320  -0.16590   0.25050   0.00000  Uiso   1.00
H(16a) H     0.96540   0.20980   0.46160   0.00000  Uiso   1.00
H(18a) H     0.73300   0.44560   0.37140   0.00000  Uiso   1.00
H(19a) H     0.99620  -0.31760   0.34610   0.00000  Uiso   1.00
H(19b) H     1.02880  -0.07780   0.29780   0.00000  Uiso   1.00
H(19c) H     1.04320  -0.08190   0.38830   0.00000  Uiso   1.00
H(20a) H     0.89320   0.53780   0.52680   0.00000  Uiso   1.00
H(20b) H     0.83700   0.72470   0.47570   0.00000  Uiso   1.00
H(20c) H     0.80310   0.48590   0.52340   0.00000  Uiso   1.00
loop_
_geom_bond_atom_site_label_1
_geom_bond_atom_site_label_2
_geom_bond_distance
_geom_bond_site_symmetry_2
_ccdc_geom_bond_type
O(1)   C(11)   1.225   .     D
O(2)   C(12)   1.214   .     D
N(1)   C(11)   1.391   .     S
N(1)   C(12)   1.404   .     S
N(1)   C(13)   1.460   .     S
C(1)   C(2)    1.394   .     S
C(1)   C(10)   1.385   .     D
C(1)   H(1a)   0.951   .     S
C(2)   C(3)    1.370   .     D
C(2)   H(2a)   0.950   .     S
C(3)   C(4)    1.413   .     S
C(3)   C(11)   1.481   .     S
C(4)   C(5)    1.417   .     D
C(4)   C(9)    1.416   .     S
C(5)   C(6)    1.371   .     S
C(5)   C(12)   1.480   .     S
C(6)   C(7)    1.395   .     D
C(6)   H(6a)   1.085   .     S
C(7)   C(8)    1.388   .     S
C(7)   H(7a)   1.054   .     S
C(8)   C(9)    1.428   .     D
C(8)   C(10)   1.471   3_655 S
C(9)   C(10)   1.431   .     S
C(10)  C(8)    1.471   3_655 S
C(13)  C(14)   1.382   .     D
C(13)  C(18)   1.374   .     S
C(14)  C(15)   1.396   .     S
C(14)  H(14a)  1.157   .     S
C(15)  C(16)   1.380   .     D
C(15)  C(19)   1.507   .     S
C(16)  C(17)   1.390   .     S
C(16)  H(16a)  1.034   .     S
C(17)  C(18)   1.390   .     D
C(17)  C(20)   1.508   .     S
C(18)  H(18a)  1.165   .     S
C(19)  H(19a)  0.946   .     S
C(19)  H(19b)  0.952   .     S
C(19)  H(19c)  0.951   .     S
C(20)  H(20a)  0.950   .     S
C(20)  H(20b)  0.949   .     S
C(20)  H(20c)  0.950   .     S
