data_image0
_chemical_formula_structural       Mg2Al4O8Mg2Al4O8Mg2Al4O8Mg2Al4O8Mg2Al4O8Mg2Al4O8Mg2Al4O8Mg2Al4O8
_chemical_formula_sum              "Mg16 Al32 O64"
_cell_length_a       11.4274
_cell_length_b       11.4274
_cell_length_c       11.4274
_cell_angle_alpha    60
_cell_angle_beta     60
_cell_angle_gamma    60

_space_group_name_H-M_alt    "P 1"
_space_group_IT_number       1

loop_
  _space_group_symop_operation_xyz
  'x, y, z'

loop_
  _atom_site_type_symbol
  _atom_site_label
  _atom_site_symmetry_multiplicity
  _atom_site_fract_x
  _atom_site_fract_y
  _atom_site_fract_z
  _atom_site_occupancy
  Mg  Mg1       1.0  0.00000  0.00000  0.00000  1.0000
  Mg  Mg2       1.0  0.12500  0.12500  0.12500  1.0000
  Al  Al1       1.0  0.31250  0.06250  0.31250  1.0000
  Al  Al2       1.0  0.31250  0.31250  0.06250  1.0000
  Al  Al3       1.0  0.06250  0.31250  0.31250  1.0000
  Al  Al4       1.0  0.31250  0.31250  0.31250  1.0000
  O   O1        1.0  0.43064  0.43064  0.43064  1.0000
  O   O2        1.0  0.19436  0.19436  0.19436  1.0000
  O   O3        1.0  0.19436  0.19436  0.41692  1.0000
  O   O4        1.0  0.43064  0.20808  0.43064  1.0000
  O   O5        1.0  0.19436  0.41692  0.19436  1.0000
  O   O6        1.0  0.20808  0.43064  0.43064  1.0000
  O   O7        1.0  0.43064  0.43064  0.20808  1.0000
  O   O8        1.0  0.41692  0.19436  0.19436  1.0000
  Mg  Mg3       1.0  0.00000  0.00000  0.50000  1.0000
  Mg  Mg4       1.0  0.12500  0.12500  0.62500  1.0000
  Al  Al5       1.0  0.31250  0.06250  0.81250  1.0000
  Al  Al6       1.0  0.31250  0.31250  0.56250  1.0000
  Al  Al7       1.0  0.06250  0.31250  0.81250  1.0000
  Al  Al8       1.0  0.31250  0.31250  0.81250  1.0000
  O   O9        1.0  0.43064  0.43064  0.93064  1.0000
  O   O10       1.0  0.19436  0.19436  0.69436  1.0000
  O   O11       1.0  0.19436  0.19436  0.91692  1.0000
  O   O12       1.0  0.43064  0.20808  0.93064  1.0000
  O   O13       1.0  0.19436  0.41692  0.69436  1.0000
  O   O14       1.0  0.20808  0.43064  0.93064  1.0000
  O   O15       1.0  0.43064  0.43064  0.70808  1.0000
  O   O16       1.0  0.41692  0.19436  0.69436  1.0000
  Mg  Mg5       1.0  0.00000  0.50000  0.00000  1.0000
  Mg  Mg6       1.0  0.12500  0.62500  0.12500  1.0000
  Al  Al9       1.0  0.31250  0.56250  0.31250  1.0000
  Al  Al10      1.0  0.31250  0.81250  0.06250  1.0000
  Al  Al11      1.0  0.06250  0.81250  0.31250  1.0000
  Al  Al12      1.0  0.31250  0.81250  0.31250  1.0000
  O   O17       1.0  0.43064  0.93064  0.43064  1.0000
  O   O18       1.0  0.19436  0.69436  0.19436  1.0000
  O   O19       1.0  0.19436  0.69436  0.41692  1.0000
  O   O20       1.0  0.43064  0.70808  0.43064  1.0000
  O   O21       1.0  0.19436  0.91692  0.19436  1.0000
  O   O22       1.0  0.20808  0.93064  0.43064  1.0000
  O   O23       1.0  0.43064  0.93064  0.20808  1.0000
  O   O24       1.0  0.41692  0.69436  0.19436  1.0000
  Mg  Mg7       1.0  0.00000  0.50000  0.50000  1.0000
  Mg  Mg8       1.0  0.12500  0.62500  0.62500  1.0000
  Al  Al13      1.0  0.31250  0.56250  0.81250  1.0000
  Al  Al14      1.0  0.31250  0.81250  0.56250  1.0000
  Al  Al15      1.0  0.06250  0.81250  0.81250  1.0000
  Al  Al16      1.0  0.31250  0.81250  0.81250  1.0000
  O   O25       1.0  0.43064  0.93064  0.93064  1.0000
  O   O26       1.0  0.19436  0.69436  0.69436  1.0000
  O   O27       1.0  0.19436  0.69436  0.91692  1.0000
  O   O28       1.0  0.43064  0.70808  0.93064  1.0000
  O   O29       1.0  0.19436  0.91692  0.69436  1.0000
  O   O30       1.0  0.20808  0.93064  0.93064  1.0000
  O   O31       1.0  0.43064  0.93064  0.70808  1.0000
  O   O32       1.0  0.41692  0.69436  0.69436  1.0000
  Mg  Mg9       1.0  0.50000  0.00000  0.00000  1.0000
  Mg  Mg10      1.0  0.62500  0.12500  0.12500  1.0000
  Al  Al17      1.0  0.81250  0.06250  0.31250  1.0000
  Al  Al18      1.0  0.81250  0.31250  0.06250  1.0000
  Al  Al19      1.0  0.56250  0.31250  0.31250  1.0000
  Al  Al20      1.0  0.81250  0.31250  0.31250  1.0000
  O   O33       1.0  0.93064  0.43064  0.43064  1.0000
  O   O34       1.0  0.69436  0.19436  0.19436  1.0000
  O   O35       1.0  0.69436  0.19436  0.41692  1.0000
  O   O36       1.0  0.93064  0.20808  0.43064  1.0000
  O   O37       1.0  0.69436  0.41692  0.19436  1.0000
  O   O38       1.0  0.70808  0.43064  0.43064  1.0000
  O   O39       1.0  0.93064  0.43064  0.20808  1.0000
  O   O40       1.0  0.91692  0.19436  0.19436  1.0000
  Mg  Mg11      1.0  0.50000  0.00000  0.50000  1.0000
  Mg  Mg12      1.0  0.62500  0.12500  0.62500  1.0000
  Al  Al21      1.0  0.81250  0.06250  0.81250  1.0000
  Al  Al22      1.0  0.81250  0.31250  0.56250  1.0000
  Al  Al23      1.0  0.56250  0.31250  0.81250  1.0000
  Al  Al24      1.0  0.81250  0.31250  0.81250  1.0000
  O   O41       1.0  0.93064  0.43064  0.93064  1.0000
  O   O42       1.0  0.69436  0.19436  0.69436  1.0000
  O   O43       1.0  0.69436  0.19436  0.91692  1.0000
  O   O44       1.0  0.93064  0.20808  0.93064  1.0000
  O   O45       1.0  0.69436  0.41692  0.69436  1.0000
  O   O46       1.0  0.70808  0.43064  0.93064  1.0000
  O   O47       1.0  0.93064  0.43064  0.70808  1.0000
  O   O48       1.0  0.91692  0.19436  0.69436  1.0000
  Mg  Mg13      1.0  0.50000  0.50000  0.00000  1.0000
  Mg  Mg14      1.0  0.62500  0.62500  0.12500  1.0000
  Al  Al25      1.0  0.81250  0.56250  0.31250  1.0000
  Al  Al26      1.0  0.81250  0.81250  0.06250  1.0000
  Al  Al27      1.0  0.56250  0.81250  0.31250  1.0000
  Al  Al28      1.0  0.81250  0.81250  0.31250  1.0000
  O   O49       1.0  0.93064  0.93064  0.43064  1.0000
  O   O50       1.0  0.69436  0.69436  0.19436  1.0000
  O   O51       1.0  0.69436  0.69436  0.41692  1.0000
  O   O52       1.0  0.93064  0.70808  0.43064  1.0000
  O   O53       1.0  0.69436  0.91692  0.19436  1.0000
  O   O54       1.0  0.70808  0.93064  0.43064  1.0000
  O   O55       1.0  0.93064  0.93064  0.20808  1.0000
  O   O56       1.0  0.91692  0.69436  0.19436  1.0000
  Mg  Mg15      1.0  0.50000  0.50000  0.50000  1.0000
  Mg  Mg16      1.0  0.62500  0.62500  0.62500  1.0000
  Al  Al29      1.0  0.81250  0.56250  0.81250  1.0000
  Al  Al30      1.0  0.81250  0.81250  0.56250  1.0000
  Al  Al31      1.0  0.56250  0.81250  0.81250  1.0000
  Al  Al32      1.0  0.81250  0.81250  0.81250  1.0000
  O   O57       1.0  0.93064  0.93064  0.93064  1.0000
  O   O58       1.0  0.69436  0.69436  0.69436  1.0000
  O   O59       1.0  0.69436  0.69436  0.91692  1.0000
  O   O60       1.0  0.93064  0.70808  0.93064  1.0000
  O   O61       1.0  0.69436  0.91692  0.69436  1.0000
  O   O62       1.0  0.70808  0.93064  0.93064  1.0000
  O   O63       1.0  0.93064  0.93064  0.70808  1.0000
  O   O64       1.0  0.91692  0.69436  0.69436  1.0000
