data_image0
_chemical_formula_structural       Mo8C4Mo8C4Mo8C4Mo8C4Mo8C4Mo8C4Mo8C4Mo8C4
_chemical_formula_sum              "Mo64 C32"
_cell_length_a       15.2952
_cell_length_b       14.0297
_cell_length_c       20.7262
_cell_angle_alpha    90
_cell_angle_beta     90
_cell_angle_gamma    65.4813

_space_group_name_H-M_alt    "P 1"
_space_group_IT_number       1

loop_
  _space_group_symop_operation_xyz
  'x, y, z'

loop_
  _atom_site_type_symbol
  _atom_site_label
  _atom_site_symmetry_multiplicity
  _atom_site_fract_x
  _atom_site_fract_y
  _atom_site_fract_z
  _atom_site_occupancy
  Mo  Mo1       1.0  0.44206  0.37920  0.49242  1.0000
  Mo  Mo2       1.0  0.43204  0.45155  0.36186  1.0000
  Mo  Mo3       1.0  0.09912  0.16938  0.45783  1.0000
  Mo  Mo4       1.0  0.27498  0.16137  0.39646  1.0000
  Mo  Mo5       1.0  0.12013  0.36832  0.43352  1.0000
  Mo  Mo6       1.0  0.25397  0.46243  0.42077  1.0000
  Mo  Mo7       1.0  0.46099  0.07535  0.47051  1.0000
  Mo  Mo8       1.0  0.41311  0.25540  0.38377  1.0000
  C   C1        1.0  0.17268  0.10343  0.37286  1.0000
  C   C2        1.0  0.20142  0.22732  0.48143  1.0000
  C   C3        1.0  0.45142  0.22732  0.48143  1.0000
  C   C4        1.0  0.42268  0.10343  0.37286  1.0000
  Mo  Mo9       1.0  0.31616  0.20995  0.63814  1.0000
  Mo  Mo10      1.0  0.30614  0.28230  0.50758  1.0000
  Mo  Mo11      1.0  0.47322  0.00013  0.60354  1.0000
  Mo  Mo12      1.0  0.14908  0.49211  0.54217  1.0000
  Mo  Mo13      1.0  0.49423  0.19907  0.57923  1.0000
  Mo  Mo14      1.0  0.12807  0.29318  0.56648  1.0000
  Mo  Mo15      1.0  0.33509  0.40609  0.61623  1.0000
  Mo  Mo16      1.0  0.28721  0.08615  0.52949  1.0000
  C   C5        1.0  0.04678  0.43418  0.51857  1.0000
  C   C6        1.0  0.07552  0.05807  0.62714  1.0000
  C   C7        1.0  0.32551  0.05807  0.62714  1.0000
  C   C8        1.0  0.29678  0.43418  0.51857  1.0000
  Mo  Mo17      1.0  0.44206  0.87920  0.49242  1.0000
  Mo  Mo18      1.0  0.43204  0.95155  0.36186  1.0000
  Mo  Mo19      1.0  0.09912  0.66938  0.45783  1.0000
  Mo  Mo20      1.0  0.27498  0.66137  0.39646  1.0000
  Mo  Mo21      1.0  0.12013  0.86832  0.43352  1.0000
  Mo  Mo22      1.0  0.25397  0.96243  0.42077  1.0000
  Mo  Mo23      1.0  0.46099  0.57535  0.47051  1.0000
  Mo  Mo24      1.0  0.41311  0.75540  0.38377  1.0000
  C   C9        1.0  0.17268  0.60343  0.37286  1.0000
  C   C10       1.0  0.20142  0.72732  0.48143  1.0000
  C   C11       1.0  0.45142  0.72732  0.48143  1.0000
  C   C12       1.0  0.42268  0.60343  0.37286  1.0000
  Mo  Mo25      1.0  0.31616  0.70995  0.63814  1.0000
  Mo  Mo26      1.0  0.30614  0.78230  0.50758  1.0000
  Mo  Mo27      1.0  0.47322  0.50013  0.60354  1.0000
  Mo  Mo28      1.0  0.14908  0.99211  0.54217  1.0000
  Mo  Mo29      1.0  0.49423  0.69907  0.57923  1.0000
  Mo  Mo30      1.0  0.12807  0.79318  0.56648  1.0000
  Mo  Mo31      1.0  0.33509  0.90609  0.61623  1.0000
  Mo  Mo32      1.0  0.28721  0.58615  0.52949  1.0000
  C   C13       1.0  0.04678  0.93418  0.51857  1.0000
  C   C14       1.0  0.07552  0.55807  0.62714  1.0000
  C   C15       1.0  0.32551  0.55807  0.62714  1.0000
  C   C16       1.0  0.29678  0.93418  0.51857  1.0000
  Mo  Mo33      1.0  0.94206  0.37920  0.49242  1.0000
  Mo  Mo34      1.0  0.93204  0.45155  0.36186  1.0000
  Mo  Mo35      1.0  0.59912  0.16938  0.45783  1.0000
  Mo  Mo36      1.0  0.77498  0.16137  0.39646  1.0000
  Mo  Mo37      1.0  0.62013  0.36832  0.43352  1.0000
  Mo  Mo38      1.0  0.75397  0.46243  0.42077  1.0000
  Mo  Mo39      1.0  0.96099  0.07535  0.47051  1.0000
  Mo  Mo40      1.0  0.91311  0.25540  0.38377  1.0000
  C   C17       1.0  0.67268  0.10343  0.37286  1.0000
  C   C18       1.0  0.70142  0.22732  0.48143  1.0000
  C   C19       1.0  0.95142  0.22732  0.48143  1.0000
  C   C20       1.0  0.92268  0.10343  0.37286  1.0000
  Mo  Mo41      1.0  0.81616  0.20995  0.63814  1.0000
  Mo  Mo42      1.0  0.80614  0.28230  0.50758  1.0000
  Mo  Mo43      1.0  0.97322  0.00013  0.60354  1.0000
  Mo  Mo44      1.0  0.64908  0.49211  0.54217  1.0000
  Mo  Mo45      1.0  0.99423  0.19907  0.57923  1.0000
  Mo  Mo46      1.0  0.62807  0.29318  0.56648  1.0000
  Mo  Mo47      1.0  0.83509  0.40609  0.61623  1.0000
  Mo  Mo48      1.0  0.78721  0.08615  0.52949  1.0000
  C   C21       1.0  0.54678  0.43418  0.51857  1.0000
  C   C22       1.0  0.57552  0.05807  0.62714  1.0000
  C   C23       1.0  0.82551  0.05807  0.62714  1.0000
  C   C24       1.0  0.79678  0.43418  0.51857  1.0000
  Mo  Mo49      1.0  0.94206  0.87920  0.49242  1.0000
  Mo  Mo50      1.0  0.93204  0.95155  0.36186  1.0000
  Mo  Mo51      1.0  0.59912  0.66938  0.45783  1.0000
  Mo  Mo52      1.0  0.77498  0.66137  0.39646  1.0000
  Mo  Mo53      1.0  0.62013  0.86832  0.43352  1.0000
  Mo  Mo54      1.0  0.75397  0.96243  0.42077  1.0000
  Mo  Mo55      1.0  0.96099  0.57535  0.47051  1.0000
  Mo  Mo56      1.0  0.91311  0.75540  0.38377  1.0000
  C   C25       1.0  0.67268  0.60343  0.37286  1.0000
  C   C26       1.0  0.70142  0.72732  0.48143  1.0000
  C   C27       1.0  0.95142  0.72732  0.48143  1.0000
  C   C28       1.0  0.92268  0.60343  0.37286  1.0000
  Mo  Mo57      1.0  0.81616  0.70995  0.63814  1.0000
  Mo  Mo58      1.0  0.80614  0.78230  0.50758  1.0000
  Mo  Mo59      1.0  0.97322  0.50013  0.60354  1.0000
  Mo  Mo60      1.0  0.64908  0.99211  0.54217  1.0000
  Mo  Mo61      1.0  0.99423  0.69907  0.57923  1.0000
  Mo  Mo62      1.0  0.62807  0.79318  0.56648  1.0000
  Mo  Mo63      1.0  0.83509  0.90609  0.61623  1.0000
  Mo  Mo64      1.0  0.78721  0.58615  0.52949  1.0000
  C   C29       1.0  0.54678  0.93418  0.51857  1.0000
  C   C30       1.0  0.57552  0.55807  0.62714  1.0000
  C   C31       1.0  0.82551  0.55807  0.62714  1.0000
  C   C32       1.0  0.79678  0.93418  0.51857  1.0000
