data_image0
_chemical_formula_structural       Mo8C4Mo8C4Mo8C4Mo8C4Mo8C4Mo8C4Mo8C4Mo8C4Mo8C4Mo8C4Mo8C4Mo8C4
_chemical_formula_sum              "Mo96 C48"
_cell_length_a       15.5726
_cell_length_b       15.2952
_cell_length_c       21.5165
_cell_angle_alpha    90
_cell_angle_beta     90
_cell_angle_gamma    90

_space_group_name_H-M_alt    "P 1"
_space_group_IT_number       1

loop_
  _space_group_symop_operation_xyz
  'x, y, z'

loop_
  _atom_site_type_symbol
  _atom_site_label
  _atom_site_symmetry_multiplicity
  _atom_site_fract_x
  _atom_site_fract_y
  _atom_site_fract_z
  _atom_site_occupancy
  Mo  Mo1       1.0  0.30690  0.41360  0.35008  1.0000
  Mo  Mo2       1.0  0.02643  0.39608  0.47734  1.0000
  Mo  Mo3       1.0  0.14023  0.14608  0.47734  1.0000
  Mo  Mo4       1.0  0.19310  0.16360  0.35008  1.0000
  Mo  Mo5       1.0  0.02643  0.23967  0.39248  1.0000
  Mo  Mo6       1.0  0.30690  0.07000  0.43495  1.0000
  Mo  Mo7       1.0  0.19310  0.32000  0.43495  1.0000
  Mo  Mo8       1.0  0.14023  0.48967  0.39248  1.0000
  C   C1        1.0  0.25000  0.28795  0.34857  1.0000
  C   C2        1.0  0.08333  0.02172  0.47885  1.0000
  C   C3        1.0  0.08333  0.27173  0.47885  1.0000
  C   C4        1.0  0.25000  0.03795  0.34857  1.0000
  Mo  Mo9       1.0  0.30690  0.22327  0.52266  1.0000
  Mo  Mo10      1.0  0.02643  0.20575  0.64992  1.0000
  Mo  Mo11      1.0  0.14023  0.45575  0.64992  1.0000
  Mo  Mo12      1.0  0.19310  0.47327  0.52266  1.0000
  Mo  Mo13      1.0  0.02643  0.04934  0.56505  1.0000
  Mo  Mo14      1.0  0.30690  0.37967  0.60752  1.0000
  Mo  Mo15      1.0  0.19310  0.12968  0.60752  1.0000
  Mo  Mo16      1.0  0.14023  0.29934  0.56505  1.0000
  C   C5        1.0  0.25000  0.09762  0.52115  1.0000
  C   C6        1.0  0.08333  0.33140  0.65143  1.0000
  C   C7        1.0  0.08333  0.08140  0.65143  1.0000
  C   C8        1.0  0.25000  0.34762  0.52115  1.0000
  Mo  Mo17      1.0  0.30690  0.91360  0.35008  1.0000
  Mo  Mo18      1.0  0.02643  0.89608  0.47734  1.0000
  Mo  Mo19      1.0  0.14023  0.64608  0.47734  1.0000
  Mo  Mo20      1.0  0.19310  0.66360  0.35008  1.0000
  Mo  Mo21      1.0  0.02643  0.73967  0.39248  1.0000
  Mo  Mo22      1.0  0.30690  0.57000  0.43495  1.0000
  Mo  Mo23      1.0  0.19310  0.82000  0.43495  1.0000
  Mo  Mo24      1.0  0.14023  0.98967  0.39248  1.0000
  C   C9        1.0  0.25000  0.78795  0.34857  1.0000
  C   C10       1.0  0.08333  0.52172  0.47885  1.0000
  C   C11       1.0  0.08333  0.77173  0.47885  1.0000
  C   C12       1.0  0.25000  0.53795  0.34857  1.0000
  Mo  Mo25      1.0  0.30690  0.72327  0.52266  1.0000
  Mo  Mo26      1.0  0.02643  0.70575  0.64992  1.0000
  Mo  Mo27      1.0  0.14023  0.95575  0.64992  1.0000
  Mo  Mo28      1.0  0.19310  0.97327  0.52266  1.0000
  Mo  Mo29      1.0  0.02643  0.54934  0.56505  1.0000
  Mo  Mo30      1.0  0.30690  0.87967  0.60752  1.0000
  Mo  Mo31      1.0  0.19310  0.62968  0.60752  1.0000
  Mo  Mo32      1.0  0.14023  0.79934  0.56505  1.0000
  C   C13       1.0  0.25000  0.59762  0.52115  1.0000
  C   C14       1.0  0.08333  0.83140  0.65143  1.0000
  C   C15       1.0  0.08333  0.58140  0.65143  1.0000
  C   C16       1.0  0.25000  0.84762  0.52115  1.0000
  Mo  Mo33      1.0  0.64023  0.41360  0.35008  1.0000
  Mo  Mo34      1.0  0.35977  0.39608  0.47734  1.0000
  Mo  Mo35      1.0  0.47357  0.14608  0.47734  1.0000
  Mo  Mo36      1.0  0.52643  0.16360  0.35008  1.0000
  Mo  Mo37      1.0  0.35977  0.23967  0.39248  1.0000
  Mo  Mo38      1.0  0.64023  0.07000  0.43495  1.0000
  Mo  Mo39      1.0  0.52643  0.32000  0.43495  1.0000
  Mo  Mo40      1.0  0.47357  0.48967  0.39248  1.0000
  C   C17       1.0  0.58333  0.28795  0.34857  1.0000
  C   C18       1.0  0.41667  0.02172  0.47885  1.0000
  C   C19       1.0  0.41667  0.27173  0.47885  1.0000
  C   C20       1.0  0.58333  0.03795  0.34857  1.0000
  Mo  Mo41      1.0  0.64023  0.22327  0.52266  1.0000
  Mo  Mo42      1.0  0.35977  0.20575  0.64992  1.0000
  Mo  Mo43      1.0  0.47357  0.45575  0.64992  1.0000
  Mo  Mo44      1.0  0.52643  0.47327  0.52266  1.0000
  Mo  Mo45      1.0  0.35977  0.04934  0.56505  1.0000
  Mo  Mo46      1.0  0.64023  0.37967  0.60752  1.0000
  Mo  Mo47      1.0  0.52643  0.12968  0.60752  1.0000
  Mo  Mo48      1.0  0.47357  0.29934  0.56505  1.0000
  C   C21       1.0  0.58333  0.09762  0.52115  1.0000
  C   C22       1.0  0.41667  0.33140  0.65143  1.0000
  C   C23       1.0  0.41667  0.08140  0.65143  1.0000
  C   C24       1.0  0.58333  0.34762  0.52115  1.0000
  Mo  Mo49      1.0  0.64023  0.91360  0.35008  1.0000
  Mo  Mo50      1.0  0.35977  0.89608  0.47734  1.0000
  Mo  Mo51      1.0  0.47357  0.64608  0.47734  1.0000
  Mo  Mo52      1.0  0.52643  0.66360  0.35008  1.0000
  Mo  Mo53      1.0  0.35977  0.73967  0.39248  1.0000
  Mo  Mo54      1.0  0.64023  0.57000  0.43495  1.0000
  Mo  Mo55      1.0  0.52643  0.82000  0.43495  1.0000
  Mo  Mo56      1.0  0.47357  0.98967  0.39248  1.0000
  C   C25       1.0  0.58333  0.78795  0.34857  1.0000
  C   C26       1.0  0.41667  0.52172  0.47885  1.0000
  C   C27       1.0  0.41667  0.77173  0.47885  1.0000
  C   C28       1.0  0.58333  0.53795  0.34857  1.0000
  Mo  Mo57      1.0  0.64023  0.72327  0.52266  1.0000
  Mo  Mo58      1.0  0.35977  0.70575  0.64992  1.0000
  Mo  Mo59      1.0  0.47357  0.95575  0.64992  1.0000
  Mo  Mo60      1.0  0.52643  0.97327  0.52266  1.0000
  Mo  Mo61      1.0  0.35977  0.54934  0.56505  1.0000
  Mo  Mo62      1.0  0.64023  0.87967  0.60752  1.0000
  Mo  Mo63      1.0  0.52643  0.62968  0.60752  1.0000
  Mo  Mo64      1.0  0.47357  0.79934  0.56505  1.0000
  C   C29       1.0  0.58333  0.59762  0.52115  1.0000
  C   C30       1.0  0.41667  0.83140  0.65143  1.0000
  C   C31       1.0  0.41667  0.58140  0.65143  1.0000
  C   C32       1.0  0.58333  0.84762  0.52115  1.0000
  Mo  Mo65      1.0  0.97356  0.41360  0.35008  1.0000
  Mo  Mo66      1.0  0.69310  0.39608  0.47734  1.0000
  Mo  Mo67      1.0  0.80690  0.14608  0.47734  1.0000
  Mo  Mo68      1.0  0.85977  0.16360  0.35008  1.0000
  Mo  Mo69      1.0  0.69310  0.23967  0.39248  1.0000
  Mo  Mo70      1.0  0.97357  0.07000  0.43495  1.0000
  Mo  Mo71      1.0  0.85977  0.32000  0.43495  1.0000
  Mo  Mo72      1.0  0.80690  0.48967  0.39248  1.0000
  C   C33       1.0  0.91667  0.28795  0.34857  1.0000
  C   C34       1.0  0.75000  0.02172  0.47885  1.0000
  C   C35       1.0  0.75000  0.27173  0.47885  1.0000
  C   C36       1.0  0.91667  0.03795  0.34857  1.0000
  Mo  Mo73      1.0  0.97356  0.22327  0.52266  1.0000
  Mo  Mo74      1.0  0.69310  0.20575  0.64992  1.0000
  Mo  Mo75      1.0  0.80690  0.45575  0.64992  1.0000
  Mo  Mo76      1.0  0.85977  0.47327  0.52266  1.0000
  Mo  Mo77      1.0  0.69310  0.04934  0.56505  1.0000
  Mo  Mo78      1.0  0.97357  0.37967  0.60752  1.0000
  Mo  Mo79      1.0  0.85977  0.12968  0.60752  1.0000
  Mo  Mo80      1.0  0.80690  0.29934  0.56505  1.0000
  C   C37       1.0  0.91667  0.09762  0.52115  1.0000
  C   C38       1.0  0.75000  0.33140  0.65143  1.0000
  C   C39       1.0  0.75000  0.08140  0.65143  1.0000
  C   C40       1.0  0.91667  0.34762  0.52115  1.0000
  Mo  Mo81      1.0  0.97356  0.91360  0.35008  1.0000
  Mo  Mo82      1.0  0.69310  0.89608  0.47734  1.0000
  Mo  Mo83      1.0  0.80690  0.64608  0.47734  1.0000
  Mo  Mo84      1.0  0.85977  0.66360  0.35008  1.0000
  Mo  Mo85      1.0  0.69310  0.73967  0.39248  1.0000
  Mo  Mo86      1.0  0.97357  0.57000  0.43495  1.0000
  Mo  Mo87      1.0  0.85977  0.82000  0.43495  1.0000
  Mo  Mo88      1.0  0.80690  0.98967  0.39248  1.0000
  C   C41       1.0  0.91667  0.78795  0.34857  1.0000
  C   C42       1.0  0.75000  0.52172  0.47885  1.0000
  C   C43       1.0  0.75000  0.77173  0.47885  1.0000
  C   C44       1.0  0.91667  0.53795  0.34857  1.0000
  Mo  Mo89      1.0  0.97356  0.72327  0.52266  1.0000
  Mo  Mo90      1.0  0.69310  0.70575  0.64992  1.0000
  Mo  Mo91      1.0  0.80690  0.95575  0.64992  1.0000
  Mo  Mo92      1.0  0.85977  0.97327  0.52266  1.0000
  Mo  Mo93      1.0  0.69310  0.54934  0.56505  1.0000
  Mo  Mo94      1.0  0.97357  0.87967  0.60752  1.0000
  Mo  Mo95      1.0  0.85977  0.62968  0.60752  1.0000
  Mo  Mo96      1.0  0.80690  0.79934  0.56505  1.0000
  C   C45       1.0  0.91667  0.59762  0.52115  1.0000
  C   C46       1.0  0.75000  0.83140  0.65143  1.0000
  C   C47       1.0  0.75000  0.58140  0.65143  1.0000
  C   C48       1.0  0.91667  0.84762  0.52115  1.0000
