data_image0
_chemical_formula_structural       Al16Mg8O32Al16Mg8O32
_chemical_formula_sum              "Al32 Mg16 O64"
_cell_length_a       11.4274
_cell_length_b       8.08039
_cell_length_c       25.1558
_cell_angle_alpha    90
_cell_angle_beta     90
_cell_angle_gamma    90

_space_group_name_H-M_alt    "P 1"
_space_group_IT_number       1

loop_
  _space_group_symop_operation_xyz
  'x, y, z'

loop_
  _atom_site_type_symbol
  _atom_site_label
  _atom_site_symmetry_multiplicity
  _atom_site_fract_x
  _atom_site_fract_y
  _atom_site_fract_z
  _atom_site_occupancy
  Al  Al1       1.0  0.44436  0.37500  0.41794  1.0000
  Al  Al2       1.0  0.06936  0.12500  0.36116  1.0000
  Al  Al3       1.0  0.19436  0.87500  0.41794  1.0000
  Al  Al4       1.0  0.06936  0.62500  0.47472  1.0000
  Al  Al5       1.0  0.31936  0.62500  0.47472  1.0000
  Al  Al6       1.0  0.19436  0.87500  0.30438  1.0000
  Al  Al7       1.0  0.31936  0.12500  0.36116  1.0000
  Al  Al8       1.0  0.44436  0.37500  0.30438  1.0000
  Al  Al9       1.0  0.44436  0.37500  0.64507  1.0000
  Al  Al10      1.0  0.06936  0.12500  0.58829  1.0000
  Al  Al11      1.0  0.19436  0.87500  0.64507  1.0000
  Al  Al12      1.0  0.06936  0.62500  0.70186  1.0000
  Al  Al13      1.0  0.31936  0.62500  0.70186  1.0000
  Al  Al14      1.0  0.19436  0.87500  0.53151  1.0000
  Al  Al15      1.0  0.31936  0.12500  0.58829  1.0000
  Al  Al16      1.0  0.44436  0.37500  0.53151  1.0000
  Mg  Mg1       1.0  0.44436  0.00000  0.47472  1.0000
  Mg  Mg2       1.0  0.44436  0.75000  0.36116  1.0000
  Mg  Mg3       1.0  0.19436  0.50000  0.36116  1.0000
  Mg  Mg4       1.0  0.19436  0.25000  0.47472  1.0000
  Mg  Mg5       1.0  0.44436  0.00000  0.70186  1.0000
  Mg  Mg6       1.0  0.44436  0.75000  0.58829  1.0000
  Mg  Mg7       1.0  0.19436  0.50000  0.58829  1.0000
  Mg  Mg8       1.0  0.19436  0.25000  0.70186  1.0000
  O   O1        1.0  0.44436  0.61128  0.42417  1.0000
  O   O2        1.0  0.05564  0.36128  0.36116  1.0000
  O   O3        1.0  0.19436  0.11128  0.41171  1.0000
  O   O4        1.0  0.08308  0.86128  0.47472  1.0000
  O   O5        1.0  0.33308  0.38872  0.47472  1.0000
  O   O6        1.0  0.19436  0.63872  0.29814  1.0000
  O   O7        1.0  0.30564  0.88872  0.36116  1.0000
  O   O8        1.0  0.44436  0.13872  0.31061  1.0000
  O   O9        1.0  0.44436  0.61128  0.29814  1.0000
  O   O10       1.0  0.30564  0.86128  0.47472  1.0000
  O   O11       1.0  0.19436  0.11128  0.31061  1.0000
  O   O12       1.0  0.33308  0.36128  0.36116  1.0000
  O   O13       1.0  0.08308  0.88872  0.36116  1.0000
  O   O14       1.0  0.44436  0.13872  0.41171  1.0000
  O   O15       1.0  0.19436  0.63872  0.42417  1.0000
  O   O16       1.0  0.05564  0.38872  0.47472  1.0000
  O   O17       1.0  0.44436  0.61128  0.65131  1.0000
  O   O18       1.0  0.05564  0.36128  0.58829  1.0000
  O   O19       1.0  0.19436  0.11128  0.63884  1.0000
  O   O20       1.0  0.08308  0.86128  0.70186  1.0000
  O   O21       1.0  0.33308  0.38872  0.70186  1.0000
  O   O22       1.0  0.19436  0.63872  0.52528  1.0000
  O   O23       1.0  0.30564  0.88872  0.58829  1.0000
  O   O24       1.0  0.44436  0.13872  0.53774  1.0000
  O   O25       1.0  0.44436  0.61128  0.52528  1.0000
  O   O26       1.0  0.30564  0.86128  0.70186  1.0000
  O   O27       1.0  0.19436  0.11128  0.53774  1.0000
  O   O28       1.0  0.33308  0.36128  0.58829  1.0000
  O   O29       1.0  0.08308  0.88872  0.58829  1.0000
  O   O30       1.0  0.44436  0.13872  0.63884  1.0000
  O   O31       1.0  0.19436  0.63872  0.65131  1.0000
  O   O32       1.0  0.05564  0.38872  0.70186  1.0000
  Al  Al17      1.0  0.94436  0.37500  0.41794  1.0000
  Al  Al18      1.0  0.56936  0.12500  0.36116  1.0000
  Al  Al19      1.0  0.69436  0.87500  0.41794  1.0000
  Al  Al20      1.0  0.56936  0.62500  0.47472  1.0000
  Al  Al21      1.0  0.81936  0.62500  0.47472  1.0000
  Al  Al22      1.0  0.69436  0.87500  0.30438  1.0000
  Al  Al23      1.0  0.81936  0.12500  0.36116  1.0000
  Al  Al24      1.0  0.94436  0.37500  0.30438  1.0000
  Al  Al25      1.0  0.94436  0.37500  0.64507  1.0000
  Al  Al26      1.0  0.56936  0.12500  0.58829  1.0000
  Al  Al27      1.0  0.69436  0.87500  0.64507  1.0000
  Al  Al28      1.0  0.56936  0.62500  0.70186  1.0000
  Al  Al29      1.0  0.81936  0.62500  0.70186  1.0000
  Al  Al30      1.0  0.69436  0.87500  0.53151  1.0000
  Al  Al31      1.0  0.81936  0.12500  0.58829  1.0000
  Al  Al32      1.0  0.94436  0.37500  0.53151  1.0000
  Mg  Mg9       1.0  0.94436  0.00000  0.47472  1.0000
  Mg  Mg10      1.0  0.94436  0.75000  0.36116  1.0000
  Mg  Mg11      1.0  0.69436  0.50000  0.36116  1.0000
  Mg  Mg12      1.0  0.69436  0.25000  0.47472  1.0000
  Mg  Mg13      1.0  0.94436  0.00000  0.70186  1.0000
  Mg  Mg14      1.0  0.94436  0.75000  0.58829  1.0000
  Mg  Mg15      1.0  0.69436  0.50000  0.58829  1.0000
  Mg  Mg16      1.0  0.69436  0.25000  0.70186  1.0000
  O   O33       1.0  0.94436  0.61128  0.42417  1.0000
  O   O34       1.0  0.55564  0.36128  0.36116  1.0000
  O   O35       1.0  0.69436  0.11128  0.41171  1.0000
  O   O36       1.0  0.58308  0.86128  0.47472  1.0000
  O   O37       1.0  0.83308  0.38872  0.47472  1.0000
  O   O38       1.0  0.69436  0.63872  0.29814  1.0000
  O   O39       1.0  0.80564  0.88872  0.36116  1.0000
  O   O40       1.0  0.94436  0.13872  0.31061  1.0000
  O   O41       1.0  0.94436  0.61128  0.29814  1.0000
  O   O42       1.0  0.80564  0.86128  0.47472  1.0000
  O   O43       1.0  0.69436  0.11128  0.31061  1.0000
  O   O44       1.0  0.83308  0.36128  0.36116  1.0000
  O   O45       1.0  0.58308  0.88872  0.36116  1.0000
  O   O46       1.0  0.94436  0.13872  0.41171  1.0000
  O   O47       1.0  0.69436  0.63872  0.42417  1.0000
  O   O48       1.0  0.55564  0.38872  0.47472  1.0000
  O   O49       1.0  0.94436  0.61128  0.65131  1.0000
  O   O50       1.0  0.55564  0.36128  0.58829  1.0000
  O   O51       1.0  0.69436  0.11128  0.63884  1.0000
  O   O52       1.0  0.58308  0.86128  0.70186  1.0000
  O   O53       1.0  0.83308  0.38872  0.70186  1.0000
  O   O54       1.0  0.69436  0.63872  0.52528  1.0000
  O   O55       1.0  0.80564  0.88872  0.58829  1.0000
  O   O56       1.0  0.94436  0.13872  0.53774  1.0000
  O   O57       1.0  0.94436  0.61128  0.52528  1.0000
  O   O58       1.0  0.80564  0.86128  0.70186  1.0000
  O   O59       1.0  0.69436  0.11128  0.53774  1.0000
  O   O60       1.0  0.83308  0.36128  0.58829  1.0000
  O   O61       1.0  0.58308  0.88872  0.58829  1.0000
  O   O62       1.0  0.94436  0.13872  0.63884  1.0000
  O   O63       1.0  0.69436  0.63872  0.65131  1.0000
  O   O64       1.0  0.55564  0.38872  0.70186  1.0000
