data_cellose_crystal
_audit_creation_date              2023-07-05
_audit_creation_method            'Materials Studio'
_symmetry_space_group_name_H-M    'P21'
_symmetry_Int_Tables_number       4
_symmetry_cell_setting            monoclinic
loop_
_symmetry_equiv_pos_as_xyz
  x,y,z
  -x,-y,z+1/2
_cell_length_a                    7.7840
_cell_length_b                    8.2010
_cell_length_c                    10.3800
_cell_angle_alpha                 90.0000
_cell_angle_beta                  90.0000
_cell_angle_gamma                 96.5500
loop_
_atom_site_label
_atom_site_type_symbol
_atom_site_fract_x
_atom_site_fract_y
_atom_site_fract_z
_atom_site_U_iso_or_equiv
_atom_site_adp_type
_atom_site_occupancy
C1     C     0.01400  -0.04200   0.04330   0.03600  Uiso   1.00
C2     C    -0.02600  -0.18400  -0.05160   0.03600  Uiso   1.00
C3     C     0.04000  -0.13700  -0.18480   0.03600  Uiso   1.00
C4     C    -0.00700   0.03000  -0.22500   0.03600  Uiso   1.00
C5     C     0.02600   0.15900  -0.12320   0.03600  Uiso   1.00
C6     C    -0.04700   0.31900  -0.15300   0.03600  Uiso   1.00
O7     O     0.06100  -0.31400  -0.00030   0.03600  Uiso   1.00
O8     O    -0.02700  -0.26100  -0.27590   0.03600  Uiso   1.00
O9     O     0.07900   0.08600  -0.34240   0.03600  Uiso   1.00
O10    O    -0.05600   0.09900  -0.00530   0.03600  Uiso   1.00
O11    O     0.04800   0.40300  -0.25400   0.03600  Uiso   1.00
C12    C     0.53300   0.45500   0.30430   0.03600  Uiso   1.00
C13    C     0.47500   0.31780   0.20940   0.03600  Uiso   1.00
C14    C     0.54500   0.36300   0.07650   0.03600  Uiso   1.00
C15    C     0.48200   0.52600   0.03750   0.03600  Uiso   1.00
C16    C     0.54100   0.65740   0.13880   0.03600  Uiso   1.00
C17    C     0.45200   0.81500   0.11250   0.03600  Uiso   1.00
O18    O     0.52800   0.16600   0.25200   0.03600  Uiso   1.00
O19    O     0.48600   0.23300  -0.00810   0.03600  Uiso   1.00
O20    O     0.56300   0.58600  -0.08060   0.03600  Uiso   1.00
O21    O     0.48500   0.60700   0.26390   0.03600  Uiso   1.00
O22    O     0.54200   0.91400   0.01700   0.03600  Uiso   1.00
H23    H     0.15871  -0.01553   0.06244   0.00000  Uiso   1.00
H24    H    -0.17129  -0.22291  -0.05491   0.00000  Uiso   1.00
H25    H     0.18698  -0.13175  -0.18388   0.00000  Uiso   1.00
H26    H    -0.15183   0.01537  -0.24547   0.00000  Uiso   1.00
H27    H     0.17128   0.18537  -0.10658   0.00000  Uiso   1.00
H28    H    -0.03862   0.39954  -0.06320   0.00000  Uiso   1.00
H29    H    -0.18803   0.29168  -0.18354   0.00000  Uiso   1.00
H30    H     0.15663  -0.26380   0.07297   0.00000  Uiso   1.00
H31    H    -0.17048  -0.27407  -0.27366   0.00000  Uiso   1.00
H32    H     0.12599   0.51369  -0.21484   0.00000  Uiso   1.00
H33    H     0.67807   0.46313   0.32287   0.00000  Uiso   1.00
H34    H     0.32775   0.30374   0.20445   0.00000  Uiso   1.00
H35    H     0.69236   0.37786   0.07934   0.00000  Uiso   1.00
H36    H     0.33522   0.51162   0.02735   0.00000  Uiso   1.00
H37    H     0.68765   0.68714   0.13661   0.00000  Uiso   1.00
H38    H     0.44887   0.88854   0.20550   0.00000  Uiso   1.00
H39    H     0.31394   0.77866   0.07790   0.00000  Uiso   1.00
H40    H     0.65355   0.18956   0.30323   0.00000  Uiso   1.00
H41    H     0.34251   0.21431  -0.00718   0.00000  Uiso   1.00
H42    H     0.60001   1.03087   0.06097   0.00000  Uiso   1.00
loop_
_geom_bond_atom_site_label_1
_geom_bond_atom_site_label_2
_geom_bond_distance
_geom_bond_site_symmetry_2
_ccdc_geom_bond_type
C1     O10     1.426   .     S
C1     C2      1.530   .     S
C1     O9      1.415   2     S
C1     H23     1.140   .     S
C2     O7      1.430   .     S
C2     C3      1.510   .     S
C2     H24     1.140   .     S
C3     O8      1.442   .     S
C3     C4      1.516   .     S
C3     H25     1.140   .     S
C4     O9      1.440   .     S
C4     C5      1.497   .     S
C4     H26     1.140   .     S
C5     O10     1.441   .     S
C5     C6      1.520   .     S
C5     H27     1.140   .     S
C6     O11     1.416   .     S
C6     H28     1.140   .     S
C6     H29     1.140   .     S
O7     H30     1.110   .     S
O8     H31     1.110   .     S
O9     C1      1.415   2_554 S
O11    H32     1.110   .     S
C12    O21     1.406   .     S
C12    C13     1.525   .     S
C12    O20     1.429   2_665 S
C12    H33     1.140   .     S
C13    O18     1.426   .     S
C13    C14     1.514   .     S
C13    H34     1.140   .     S
C14    O19     1.417   .     S
C14    C15     1.530   .     S
C14    H35     1.140   .     S
C15    O20     1.439   .     S
C15    C16     1.538   .     S
C15    H36     1.140   .     S
C16    O21     1.416   .     S
C16    C17     1.559   .     S
C16    H37     1.140   .     S
C17    O22     1.415   .     S
C17    H38     1.140   .     S
C17    H39     1.140   .     S
O18    H40     1.110   .     S
O19    H41     1.110   .     S
O20    C12     1.429   2_664 S
O22    H42     1.110   .     S
