# generated using pymatgen
data_S
_symmetry_space_group_name_H-M   'P 1'
_cell_length_a   10.76824315
_cell_length_b   13.13494861
_cell_length_c   24.89789807
_cell_angle_alpha   90.00000000
_cell_angle_beta   90.00000000
_cell_angle_gamma   90.00000000
_symmetry_Int_Tables_number   1
_chemical_formula_structural   S
_chemical_formula_sum   S128
_cell_volume   3521.56668181
_cell_formula_units_Z   128
loop_
 _symmetry_equiv_pos_site_id
 _symmetry_equiv_pos_as_xyz
  1  'x, y, z'
loop_
 _atom_site_type_symbol
 _atom_site_label
 _atom_site_symmetry_multiplicity
 _atom_site_fract_x
 _atom_site_fract_y
 _atom_site_fract_z
 _atom_site_occupancy
  S  S0  1  0.26912552  0.82632937  0.32746853  1
  S  S1  1  0.76912552  0.17367063  0.17253147  1
  S  S2  1  0.23087448  0.82632937  0.17253147  1
  S  S3  1  0.73087448  0.17367063  0.32746853  1
  S  S4  1  0.48087448  0.92367063  0.92253147  1
  S  S5  1  0.98087448  0.57632937  0.07746853  1
  S  S6  1  0.51912552  0.92367063  0.07746853  1
  S  S7  1  0.01912552  0.57632937  0.92253147  1
  S  S8  1  0.91288697  0.85492680  0.87939390  1
  S  S9  1  0.91288697  0.14507320  0.12060610  1
  S  S10  1  0.08711303  0.85492680  0.12060610  1
  S  S11  1  0.08711303  0.14507320  0.87939390  1
  S  S12  1  0.83711303  0.89507320  0.37060610  1
  S  S13  1  0.83711303  0.60492680  0.12939390  1
  S  S14  1  0.66288697  0.89507320  0.12939390  1
  S  S15  1  0.66288697  0.60492680  0.37060610  1
  S  S16  1  0.84002816  0.90295609  0.95108978  1
  S  S17  1  0.84002816  0.09704391  0.04891022  1
  S  S18  1  0.15997184  0.90295609  0.04891022  1
  S  S19  1  0.15997184  0.09704391  0.95108978  1
  S  S20  1  0.90997184  0.84704391  0.29891022  1
  S  S21  1  0.90997184  0.65295609  0.20108978  1
  S  S22  1  0.59002816  0.84704391  0.20108978  1
  S  S23  1  0.59002816  0.65295609  0.29891022  1
  S  S24  1  0.83649388  0.78269887  0.00353592  1
  S  S25  1  0.33649388  0.71730113  0.99646408  1
  S  S26  1  0.16350612  0.78269887  0.99646408  1
  S  S27  1  0.66350612  0.71730113  0.00353592  1
  S  S28  1  0.91350612  0.96730113  0.24646408  1
  S  S29  1  0.41350612  0.03269887  0.25353592  1
  S  S30  1  0.58649388  0.96730113  0.25353592  1
  S  S31  1  0.08649388  0.03269887  0.24646408  1
  S  S32  1  0.26912552  0.32632937  0.82746853  1
  S  S33  1  0.76912552  0.67367063  0.67253147  1
  S  S34  1  0.23087448  0.32632937  0.67253147  1
  S  S35  1  0.73087448  0.67367063  0.82746853  1
  S  S36  1  0.48087448  0.42367063  0.42253147  1
  S  S37  1  0.98087448  0.07632937  0.57746853  1
  S  S38  1  0.51912552  0.42367063  0.57746853  1
  S  S39  1  0.01912552  0.07632937  0.42253147  1
  S  S40  1  0.91288697  0.35492680  0.37939390  1
  S  S41  1  0.91288697  0.64507320  0.62060610  1
  S  S42  1  0.08711303  0.35492680  0.62060610  1
  S  S43  1  0.08711303  0.64507320  0.37939390  1
  S  S44  1  0.83711303  0.39507320  0.87060610  1
  S  S45  1  0.83711303  0.10492680  0.62939390  1
  S  S46  1  0.66288697  0.39507320  0.62939390  1
  S  S47  1  0.66288697  0.10492680  0.87060610  1
  S  S48  1  0.84002816  0.40295609  0.45108978  1
  S  S49  1  0.84002816  0.59704391  0.54891022  1
  S  S50  1  0.15997184  0.40295609  0.54891022  1
  S  S51  1  0.15997184  0.59704391  0.45108978  1
  S  S52  1  0.90997184  0.34704391  0.79891022  1
  S  S53  1  0.90997184  0.15295609  0.70108978  1
  S  S54  1  0.59002816  0.34704391  0.70108978  1
  S  S55  1  0.59002816  0.15295609  0.79891022  1
  S  S56  1  0.83649388  0.28269887  0.50353592  1
  S  S57  1  0.33649388  0.21730113  0.49646408  1
  S  S58  1  0.16350612  0.28269887  0.49646408  1
  S  S59  1  0.66350612  0.21730113  0.50353592  1
  S  S60  1  0.91350612  0.46730113  0.74646408  1
  S  S61  1  0.41350612  0.53269887  0.75353592  1
  S  S62  1  0.58649388  0.46730113  0.75353592  1
  S  S63  1  0.08649388  0.53269887  0.74646408  1
  S  S64  1  0.76912552  0.82632937  0.82746853  1
  S  S65  1  0.26912552  0.17367063  0.67253147  1
  S  S66  1  0.73087448  0.82632937  0.67253147  1
  S  S67  1  0.23087448  0.17367063  0.82746853  1
  S  S68  1  0.98087448  0.92367063  0.42253147  1
  S  S69  1  0.48087448  0.57632937  0.57746853  1
  S  S70  1  0.01912552  0.92367063  0.57746853  1
  S  S71  1  0.51912552  0.57632937  0.42253147  1
  S  S72  1  0.41288697  0.85492680  0.37939390  1
  S  S73  1  0.41288697  0.14507320  0.62060610  1
  S  S74  1  0.58711303  0.85492680  0.62060610  1
  S  S75  1  0.58711303  0.14507320  0.37939390  1
  S  S76  1  0.33711303  0.89507320  0.87060610  1
  S  S77  1  0.33711303  0.60492680  0.62939390  1
  S  S78  1  0.16288697  0.89507320  0.62939390  1
  S  S79  1  0.16288697  0.60492680  0.87060610  1
  S  S80  1  0.34002816  0.90295609  0.45108978  1
  S  S81  1  0.34002816  0.09704391  0.54891022  1
  S  S82  1  0.65997184  0.90295609  0.54891022  1
  S  S83  1  0.65997184  0.09704391  0.45108978  1
  S  S84  1  0.40997184  0.84704391  0.79891022  1
  S  S85  1  0.40997184  0.65295609  0.70108978  1
  S  S86  1  0.09002816  0.84704391  0.70108978  1
  S  S87  1  0.09002816  0.65295609  0.79891022  1
  S  S88  1  0.33649388  0.78269887  0.50353592  1
  S  S89  1  0.83649388  0.71730113  0.49646408  1
  S  S90  1  0.66350612  0.78269887  0.49646408  1
  S  S91  1  0.16350612  0.71730113  0.50353592  1
  S  S92  1  0.41350612  0.96730113  0.74646408  1
  S  S93  1  0.91350612  0.03269887  0.75353592  1
  S  S94  1  0.08649388  0.96730113  0.75353592  1
  S  S95  1  0.58649388  0.03269887  0.74646408  1
  S  S96  1  0.76912552  0.32632937  0.32746853  1
  S  S97  1  0.26912552  0.67367063  0.17253147  1
  S  S98  1  0.73087448  0.32632937  0.17253147  1
  S  S99  1  0.23087448  0.67367063  0.32746853  1
  S  S100  1  0.98087448  0.42367063  0.92253147  1
  S  S101  1  0.48087448  0.07632937  0.07746853  1
  S  S102  1  0.01912552  0.42367063  0.07746853  1
  S  S103  1  0.51912552  0.07632937  0.92253147  1
  S  S104  1  0.41288697  0.35492680  0.87939390  1
  S  S105  1  0.41288697  0.64507320  0.12060610  1
  S  S106  1  0.58711303  0.35492680  0.12060610  1
  S  S107  1  0.58711303  0.64507320  0.87939390  1
  S  S108  1  0.33711303  0.39507320  0.37060610  1
  S  S109  1  0.33711303  0.10492680  0.12939390  1
  S  S110  1  0.16288697  0.39507320  0.12939390  1
  S  S111  1  0.16288697  0.10492680  0.37060610  1
  S  S112  1  0.34002816  0.40295609  0.95108978  1
  S  S113  1  0.34002816  0.59704391  0.04891022  1
  S  S114  1  0.65997184  0.40295609  0.04891022  1
  S  S115  1  0.65997184  0.59704391  0.95108978  1
  S  S116  1  0.40997184  0.34704391  0.29891022  1
  S  S117  1  0.40997184  0.15295609  0.20108978  1
  S  S118  1  0.09002816  0.34704391  0.20108978  1
  S  S119  1  0.09002816  0.15295609  0.29891022  1
  S  S120  1  0.33649388  0.28269887  0.00353592  1
  S  S121  1  0.83649388  0.21730113  0.99646408  1
  S  S122  1  0.66350612  0.28269887  0.99646408  1
  S  S123  1  0.16350612  0.21730113  0.00353592  1
  S  S124  1  0.41350612  0.46730113  0.24646408  1
  S  S125  1  0.91350612  0.53269887  0.25353592  1
  S  S126  1  0.08649388  0.46730113  0.25353592  1
  S  S127  1  0.58649388  0.53269887  0.24646408  1
