# generated using pymatgen
data_SiO2
_symmetry_space_group_name_H-M   'P 1'
_cell_length_a   7.39873268
_cell_length_b   7.39873268
_cell_length_c   7.39873268
_cell_angle_alpha   90.00000000
_cell_angle_beta   90.00000000
_cell_angle_gamma   90.00000000
_symmetry_Int_Tables_number   1
_chemical_formula_structural   SiO2
_chemical_formula_sum   'Si8 O16'
_cell_volume   405.01584032
_cell_formula_units_Z   8
loop_
 _symmetry_equiv_pos_site_id
 _symmetry_equiv_pos_as_xyz
  1  'x, y, z'
loop_
 _atom_type_symbol
 _atom_type_oxidation_number
  Si4+  4.0
  O2-  -2.0
loop_
 _atom_site_type_symbol
 _atom_site_label
 _atom_site_symmetry_multiplicity
 _atom_site_fract_x
 _atom_site_fract_y
 _atom_site_fract_z
 _atom_site_occupancy
  Si4+  Si0  1  0.25000000  0.25000000  0.25000000  1
  Si4+  Si1  1  0.50000000  0.00000000  0.50000000  1
  Si4+  Si2  1  0.25000000  0.75000000  0.75000000  1
  Si4+  Si3  1  0.50000000  0.50000000  0.00000000  1
  Si4+  Si4  1  0.75000000  0.25000000  0.75000000  1
  Si4+  Si5  1  0.00000000  0.00000000  0.00000000  1
  Si4+  Si6  1  0.75000000  0.75000000  0.25000000  1
  Si4+  Si7  1  0.00000000  0.50000000  0.50000000  1
  O2-  O8  1  0.87500000  0.87500000  0.12500000  1
  O2-  O9  1  0.37500000  0.12500000  0.37500000  1
  O2-  O10  1  0.12500000  0.12500000  0.12500000  1
  O2-  O11  1  0.62500000  0.87500000  0.37500000  1
  O2-  O12  1  0.87500000  0.37500000  0.62500000  1
  O2-  O13  1  0.37500000  0.62500000  0.87500000  1
  O2-  O14  1  0.12500000  0.62500000  0.62500000  1
  O2-  O15  1  0.62500000  0.37500000  0.87500000  1
  O2-  O16  1  0.37500000  0.87500000  0.62500000  1
  O2-  O17  1  0.87500000  0.12500000  0.87500000  1
  O2-  O18  1  0.62500000  0.12500000  0.62500000  1
  O2-  O19  1  0.12500000  0.87500000  0.87500000  1
  O2-  O20  1  0.37500000  0.37500000  0.12500000  1
  O2-  O21  1  0.87500000  0.62500000  0.37500000  1
  O2-  O22  1  0.62500000  0.62500000  0.12500000  1
  O2-  O23  1  0.12500000  0.37500000  0.37500000  1
